Data/networks/opendssNetworks/network_5/Feeder_7/Loads - Copy.txt
New Load.LOAD1 Phases=1 Bus1=57.1 kV=0.23 kW=1 PF=0.95
New Load.LOAD2 Phases=1 Bus1=60.2 kV=0.23 kW=1 PF=0.95
New Load.LOAD3 Phases=1 Bus1=63.3 kV=0.23 kW=1 PF=0.95
New Load.LOAD4 Phases=1 Bus1=69.1 kV=0.23 kW=1 PF=0.95
New Load.LOAD5 Phases=1 Bus1=77.3 kV=0.23 kW=1 PF=0.95
New Load.LOAD6 Phases=1 Bus1=79.1 kV=0.23 kW=1 PF=0.95
New Load.LOAD7 Phases=1 Bus1=92.2 kV=0.23 kW=1 PF=0.95
New Load.LOAD8 Phases=1 Bus1=103.3 kV=0.23 kW=1 PF=0.95
New Load.LOAD9 Phases=1 Bus1=116.1 kV=0.23 kW=1 PF=0.95
New Load.LOAD10 Phases=1 Bus1=129.1 kV=0.23 kW=1 PF=0.95
New Load.LOAD11 Phases=1 Bus1=193.1 kV=0.23 kW=1 PF=0.95
New Load.LOAD12 Phases=1 Bus1=214.2 kV=0.23 kW=1 PF=0.95
New Load.LOAD13 Phases=1 Bus1=221.3 kV=0.23 kW=1 PF=0.95
New Load.LOAD14 Phases=1 Bus1=230.2 kV=0.23 kW=1 PF=0.95
New Load.LOAD15 Phases=1 Bus1=243.1 kV=0.23 kW=1 PF=0.95
New Load.LOAD16 Phases=1 Bus1=251.1 kV=0.23 kW=1 PF=0.95
New Load.LOAD17 Phases=1 Bus1=267.2 kV=0.23 kW=1 PF=0.95
New Load.LOAD18 Phases=1 Bus1=275.3 kV=0.23 kW=1 PF=0.95
New Load.LOAD19 Phases=1 Bus1=287.3 kV=0.23 kW=1 PF=0.95
New Load.LOAD20 Phases=1 Bus1=297.1 kV=0.23 kW=1 PF=0.95
New Load.LOAD21 Phases=1 Bus1=303.2 kV=0.23 kW=1 PF=0.95
New Load.LOAD22 Phases=1 Bus1=309.3 kV=0.23 kW=1 PF=0.95
New Load.LOAD23 Phases=1 Bus1=313.1 kV=0.23 kW=1 PF=0.95
